src/parser/test/PTI23_seqtest.raw
0  100.000
IEEE 118 bus test case
IEEE 118 bus test case
    10,   11, 1.1, 1.2, 1.3, 1.4,  12, 1.5, 1.6,   '1',  1.7,    13
    20,   21, 2.1, 2.2, 2.3, 2.4,  22, 2.5, 2.6,   '2',  2.7,    23
    30,   31, 3.1, 3.2, 3.3, 3.4,  32, 3.5, 3.6,   '3',  3.7,    33
    40,   41, 4.1, 4.2, 4.3, 4.4,  42, 4.5, 4.6,   '4',  4.7,    43
    50,   51, 5.1, 5.2, 5.3, 5.4,  52, 5.5, 5.6,   '5',  5.7,    53
    60,   61, 6.1, 6.2, 6.3, 6.4,  62, 6.5, 6.6,   '6',  6.7,    63
    70,   71, 7.1, 7.2, 7.3, 7.4,  72, 7.5, 7.6,   '7',  7.7,    73
    80,   81, 8.1, 8.2, 8.3, 8.4,  82, 8.5, 8.6,   '8',  8.7,    83
    90,   91, 9.1, 9.2, 9.3, 9.4,  92, 9.5, 9.6,   '9',  9.7,    93
0
    11, '1', 1.0, 1.1, 1.2, 1.3, 1.4,    12,   1.5, 1.6, 1.7, 1.8, 1.9,   1.01,    13,   1.02, 1.03, 1.04
    21, '2', 2.0, 2.1, 2.2, 2.3, 2.4,    22,   2.5, 2.6, 2.7, 2.8, 2.9,   2.01,    23,   2.02, 2.03, 2.04
    31, '3', 3.0, 3.1, 3.2, 3.3, 3.4,    32,   3.5, 3.6, 3.7, 3.8, 3.9,   3.01,    33,   3.02, 3.03, 3.04
    41, '4', 4.0, 4.1, 4.2, 4.3, 4.4,    42,   4.5, 4.6, 4.7, 4.8, 4.9,   4.01,    43,   4.02, 4.03, 4.04
    51, '5', 5.0, 5.1, 5.2, 5.3, 5.4,    52,   5.5, 5.6, 5.7, 5.8, 5.9,   5.01,    53,   5.02, 5.03, 5.04
    61, '6', 6.0, 6.1, 6.2, 6.3, 6.4,    62,   6.5, 6.6, 6.7, 6.8, 6.9,   6.01,    63,   6.02, 6.03, 6.04
    71, '7', 7.0, 7.1, 7.2, 7.3, 7.4,    72,   7.5, 7.6, 7.7, 7.8, 7.9,   7.01,    73,   7.02, 7.03, 7.04
    81, '8', 8.0, 8.1, 8.2, 8.3, 8.4,    82,   8.5, 8.6, 8.7, 8.8, 8.9,   8.01,    83,   8.02, 8.03, 8.04
    91, '9', 9.0, 9.1, 9.2, 9.3, 9.4,    92,   9.5, 9.6, 9.7, 9.8, 9.9,   9.01,    93,   9.02, 9.03, 9.04
0 / END OF GENERATOR DATA, BEGIN BRANCH DATA2
    12, 13, '1', 1.0, 1.1, 1.2,   1.3,   1.4,   1.5,   1.6,   1.7, 1.8, 1.9, 1.01, 1.02,  14
    22, 23, '2', 2.0, 2.1, 2.2,   2.3,   2.4,   2.5,   2.6,   2.7, 2.8, 2.9, 2.01, 2.02,  24
    32, 33, '3', 3.0, 3.1, 3.2,   3.3,   3.4,   3.5,   3.6,   3.7, 3.8, 3.9, 3.01, 3.02,  34
    42, 43, '4', 4.0, 4.1, 4.2,   4.3,   4.4,   4.5,   4.6,   4.7, 4.8, 4.9, 4.01, 4.02,  44
    52, 53, '5', 5.0, 5.1, 5.2,   5.3,   5.4,   5.5,   5.6,   5.7, 5.8, 5.9, 5.01, 5.02,  54
    62, 63, '6', 6.0, 6.1, 6.2,   6.3,   6.4,   6.5,   6.6,   6.7, 6.8, 6.9, 6.01, 6.02,  64
    72, 73, '7', 7.0, 7.1, 7.2,   7.3,   7.4,   7.5,   7.6,   7.7, 7.8, 7.9, 7.01, 7.02,  74
    82, 83, '8', 8.0, 8.1, 8.2,   8.3,   8.4,   8.5,   8.6,   8.7, 8.8, 8.9, 8.01, 8.02,  84
    92, 93, '9', 9.0, 9.1, 9.2,   9.3,   9.4,   9.5,   9.6,   9.7, 9.8, 9.9, 9.01, 9.02,  94
0 / END OF BRANCH DATA, BEGIN TRANSFORMER ADJUSTMENT DATA
    13, 14, '1',     15,   16,   17, 1.0, 1.1,  1.2,  1.3
    23, 24, '2',     25,   26,   27, 2.0, 2.1,  2.2,  2.3
    33, 34, '3',     35,   36,   37, 3.0, 3.1,  3.2,  3.3
    43, 44, '4',     45,   46,   47, 4.0, 4.1,  4.2,  4.3
    53, 54, '5',     55,   56,   57, 5.0, 5.1,  5.2,  5.3
    63, 64, '6',     65,   66,   67, 6.0, 6.1,  6.2,  6.3
    73, 74, '7',     75,   76,   77, 7.0, 7.1,  7.2,  7.3
    83, 84, '8',     85,   86,   87, 8.0, 8.1,  8.2,  8.3
    93, 94, '9',     95,   96,   97, 9.0, 9.1,  9.2,  9.3
0 / END OF TRANSFORMER ADJUSTMENT DATA, BEGIN AREA DATA
    14,   15,  1.0,  1.1,     '1'
    24,   25,  2.0,  2.1,     '2'
    34,   35,  3.0,  3.1,     '3'
    44,   45,  4.0,  4.1,     '4'
    54,   55,  5.0,  5.1,     '5'
    64,   65,  6.0,  6.1,     '6'
    74,   75,  7.0,  7.1,     '7'
    84,   85,  8.0,  8.1,     '8'
    94,   95,  9.0,  9.1,     '9'
0 / END OF AREA DATA, BEGIN TWO-TERMINAL DC DATA
  15,   16,   17,   1.1,   1.2,   1.3,   1.4,   1.5,     A,
  105,   18,    1.6,   1.7, 1.8, 1.9,   1.01, 1.02,  1.04,   1.05,   1.06,   1.07, 
  1005,  19,   110,   1.08,   1.09, 1.11, 1.12,   1.13, 1.14,  1.15,   1.16,   1.17,   1.18
  25,   26,   27,   2.1,   2.2,   2.3,   2.4,   2.5,     B,
  205,   28,    2.6,   2.7, 2.8, 2.9,   2.01, 2.02,  2.04,   2.05,   2.06,   2.07, 
  2005,  29,   210,   2.08,   2.09, 2.11, 2.12,   2.13, 2.14,  2.15,   2.16,   2.17,   2.18
  35,   36,   37,   3.1,   3.2,   3.3,   3.4,   3.5,     C,
  305,   38,    3.6,   3.7, 3.8, 3.9,   3.01, 3.02,  3.04,   3.05,   3.06,   3.07, 
  3005,  39,   310,   3.08,   3.09, 3.11, 3.12,   3.13, 3.14,  3.15,   3.16,   3.17,   3.18
  45,   46,   47,   4.1,   4.2,   4.3,   4.4,   4.5,     D,
  405,   48,    4.6,   4.7, 4.8, 4.9,   4.01, 4.02,  4.04,   4.05,   4.06,   4.07, 
  4005,  49,   410,   4.08,   4.09, 4.11, 4.12,   4.13, 4.14,  4.15,   4.16,   4.17,   4.18
  55,   56,   57,   5.1,   5.2,   5.3,   5.4,   5.5,     E,
  505,   58,    5.6,   5.7, 5.8, 5.9,   5.01, 5.02,  5.04,   5.05,   5.06,   5.07, 
  5005,  59,   510,   5.08,   5.09, 5.11, 5.12,   5.13, 5.14,  5.15,   5.16,   5.17,   5.18
  65,   66,   67,   6.1,   6.2,   6.3,   6.4,   6.5,     F,
  605,   68,    6.6,   6.7, 6.8, 6.9,   6.01, 6.02,  6.04,   6.05,   6.06,   6.07, 
  6005,  69,   610,   6.08,   6.09, 6.11, 6.12,   6.13, 6.14,  6.15,   6.16,   6.17,   6.18
  75,   76,   77,   7.1,   7.2,   7.3,   7.4,   7.5,     G,
  705,   78,    7.6,   7.7, 7.8, 7.9,   7.01, 7.02,  7.04,   7.05,   7.06,   7.07, 
  7005,  79,   710,   7.08,   7.09, 7.11, 7.12,   7.13, 7.14,  7.15,   7.16,   7.17,   7.18
  85,   86,   87,   8.1,   8.2,   8.3,   8.4,   8.5,     H,
  805,   88,    8.6,   8.7, 8.8, 8.9,   8.01, 8.02,  8.04,   8.05,   8.06,   8.07, 
  8005,  89,   810,   8.08,   8.09, 8.11, 8.12,   8.13, 8.14,  8.15,   8.16,   8.17,   8.18
  95,   96,   97,   9.1,   9.2,   9.3,   9.4,   9.5,     I,
  905,   98,    9.6,   9.7, 9.8, 9.9,   9.01, 9.02,  9.04,   9.05,   9.06,   9.07, 
  9005,  99,   910,   9.08,   9.09, 9.11, 9.12,   9.13, 9.14,  9.15,   9.16,   9.17,   9.18
0 / END OF TWO-TERMINAL DC DATA, BEGIN SWITCHED SHUNT DATA
  16,    10,    1.1,   1.2,     11,   1.3,  12, 1.4,  13, 1.5,  14, 1.6,  15, 1.7,  16, 1.8,  17, 1.9,  18, 1.01,  19, 1.02
  26,    20,    2.1,   2.2,     21,   2.3,  22, 2.4,  23, 2.5,  24, 2.6,  25, 2.7,  26, 2.8,  27, 2.9,  28, 2.01,  29, 2.02
  36,    30,    3.1,   3.2,     31,   3.3,  32, 3.4,  33, 3.5,  34, 3.6,  35, 3.7,  36, 3.8,  37, 3.9,  38, 3.01,  39, 3.02
  46,    40,    4.1,   4.2,     41,   4.3,  42, 4.4,  43, 4.5,  44, 4.6,  45, 4.7,  46, 4.8,  47, 4.9,  48, 4.01,  49, 4.02
  56,    50,    5.1,   5.2,     51,   5.3,  52, 5.4,  53, 5.5,  54, 5.6,  55, 5.7,  56, 5.8,  57, 5.9,  58, 5.01,  59, 5.02
  66,    60,    6.1,   6.2,     61,   6.3,  62, 6.4,  63, 6.5,  64, 6.6,  65, 6.7,  66, 6.8,  67, 6.9,  68, 6.01,  69, 6.02
  76,    70,    7.1,   7.2,     71,   7.3,  72, 7.4,  73, 7.5,  74, 7.6,  75, 7.7,  76, 7.8,  77, 7.9,  78, 7.01,  79, 7.02
  86,    80,    8.1,   8.2,     81,   8.3,  82, 8.4,  83, 8.5,  84, 8.6,  85, 8.7,  86, 8.8,  87, 8.9,  88, 8.01,  89, 8.02
  96,    90,    9.1,   9.2,     91,   9.3,  92, 9.4,  93, 9.5,  94, 9.6,  95, 9.7,  96, 9.8,  97, 9.9,  98, 9.01,  99, 9.02
0 / END OF SWITCHED SHUNT DATA, BEGIN IMPEDANCE CORRECTION DATA
    17
    27
    37
    47
    57
    67
    77
    87
    97
0 / END OF IMPEDANCE CORRECTION DATA, BEGIN MULTI-TERMINAL DC DATA
    18
    28
    38
    48
    58
    68
    78
    88
    98
0 / END OF MULTI-TERMINAL DC DATA, BEGIN MULTI-SECTION LINE DATA
    19
    29
    39
    49
    59
    69
    79
    89
    99
0 / END OF MULTI-SECTION LINE DATA, BEGIN ZONE DATA
    11,    'ZONE-01'
0 / END OF ZONE DATA, BEGIN INTER-AREA TRANSFER DATA
    110
    210
    310
    410
    510
    610
    710
    810
    910
0 / END OF INTER-AREA TRANSFER DATA, BEGIN OWNER DATA
    111,         'OWNER_1'
0 / END OF OWNER DATA, BEGIN FACTS DEVICE DATA
